@<TRIPOS>MOLECULE
6AT
   48    50     1     0     0
SMALL
bcc


@<TRIPOS>ATOM
      1 CAA         45.6470    36.4540    72.2620 c3      1201 6AT      -0.046000
      2 OAC         50.4940    42.4630    57.5100 o       1201 6AT      -0.895000
      3 OAD         48.8410    41.9120    63.4860 o       1201 6AT      -0.891500
      4 OAE         51.6980    41.3380    59.9780 o       1201 6AT      -0.905000
      5 OAH         48.7630    40.7520    58.3100 o       1201 6AT      -0.895000
      6 OAI         48.0570    43.0730    57.7210 oh      1201 6AT      -0.814400
      7 OAJ         47.1790    40.6810    61.9820 o       1201 6AT      -0.891500
      8 OAK         50.9520    42.8510    61.8700 o       1201 6AT      -0.905000
      9 OAS         49.4690    42.6170    59.7950 os      1201 6AT      -0.838800
     10 OAT         49.6960    40.5950    61.3980 os      1201 6AT      -0.818800
     11 PBE         49.2620    42.1410    58.2690 p5      1201 6AT       1.596800
     12 PBF         48.6470    40.7230    62.6310 p5      1201 6AT       1.612800
     13 PBG         50.5160    41.8220    60.7240 p5      1201 6AT       1.731800
     14 C5'         49.3260    38.1610    62.9710 c3      1201 6AT       0.204400
     15 O5'         48.7610    39.3670    63.4990 os      1201 6AT      -0.603200
     16 C4'         48.7100    36.9350    63.6630 c5      1201 6AT       0.078100
     17 O4'         48.3680    37.1750    65.0540 os      1201 6AT      -0.433600
     18 C3'         47.4560    36.4760    62.9400 c5      1201 6AT       0.066100
     19 O3'         47.4720    35.0380    62.8220 oh      1201 6AT      -0.616800
     20 C2'         46.3340    36.9430    63.8460 c5      1201 6AT       0.078100
     21 O2'         45.2130    36.0530    63.8030 oh      1201 6AT      -0.621800
     22 C1'         46.9500    36.9580    65.2390 c5      1201 6AT       0.256800
     23 N1          45.3950    38.3170    69.9610 nb      1201 6AT      -0.812000
     24 C2          45.8130    37.1010    69.5470 ca      1201 6AT       0.739300
     25 S2          45.8950    35.7070    70.6610 ss      1201 6AT      -0.284400
     26 N3          46.1860    36.9360    68.2620 nb      1201 6AT      -0.688000
     27 C4          46.1320    37.9720    67.3940 ca      1201 6AT       0.429800
     28 C5          45.7150    39.1750    67.8110 ca      1201 6AT      -0.174200
     29 C6          45.3470    39.3410    69.0880 ca      1201 6AT       0.672200
     30 N6          44.9400    40.5580    69.4510 nv      1201 6AT      -0.917500
     31 N7          45.7590    40.0090    66.7740 nc      1201 6AT      -0.611100
     32 C8          46.2140    39.3340    65.7260 cd      1201 6AT       0.512700
     33 N9          46.4230    38.0690    66.0950 na      1201 6AT      -0.254000
     34 HAA1        45.7590    35.6970    73.0380 h1      1201 6AT       0.056700
     35 HAA2        44.6450    36.8810    72.3120 h1      1201 6AT       0.056700
     36 HAA3        46.3850    37.2410    72.4140 h1      1201 6AT       0.056700
     37 HAI         47.8700    42.8500    56.8060 ho      1201 6AT       0.426000
     38 H5'         50.4030    38.1650    63.1390 h1      1201 6AT       0.043200
     39 H5''        49.1280    38.1080    61.9000 h1      1201 6AT       0.043200
     40 H4'         49.4380    36.1240    63.6280 h1      1201 6AT       0.050700
     41 H3'         47.3820    36.9440    61.9590 h1      1201 6AT       0.190700
     42 HO3'        46.6800    34.7450    62.3650 ho      1201 6AT       0.381000
     43 H2'         46.0220    37.9490    63.5650 h1      1201 6AT       0.142700
     44 HO2'        44.8360    36.0550    62.9200 ho      1201 6AT       0.416000
     45 H1'         46.7820    35.9990    65.7300 h2      1201 6AT       0.073700
     46 H61         44.9170    41.3060    68.7730 hn      1201 6AT       0.396300
     47 H62         44.6550    40.7320    70.4040 hn      1201 6AT       0.396300
     48 H8          46.3860    39.7400    64.7400 h5      1201 6AT       0.207800
@<TRIPOS>BOND
     1     1    25 1   
     2     1    34 1   
     3     1    35 1   
     4     1    36 1   
     5     2    11 1   
     6     3    12 1   
     7     4    13 1   
     8     5    11 1   
     9     6    11 1   
    10     6    37 1   
    11     7    12 1   
    12     8    13 1   
    13     9    11 1   
    14     9    13 1   
    15    10    12 1   
    16    10    13 1   
    17    12    15 1   
    18    14    15 1   
    19    14    16 1   
    20    14    38 1   
    21    14    39 1   
    22    16    17 1   
    23    16    18 1   
    24    16    40 1   
    25    17    22 1   
    26    18    19 1   
    27    18    20 1   
    28    18    41 1   
    29    19    42 1   
    30    20    21 1   
    31    20    22 1   
    32    20    43 1   
    33    21    44 1   
    34    22    33 1   
    35    22    45 1   
    36    23    24 ar  
    37    23    29 ar  
    38    24    25 1   
    39    24    26 ar  
    40    26    27 ar  
    41    27    28 ar  
    42    27    33 1   
    43    28    29 ar  
    44    28    31 1   
    45    29    30 1   
    46    30    46 1   
    47    30    47 1   
    48    31    32 2   
    49    32    33 1   
    50    32    48 1   
@<TRIPOS>SUBSTRUCTURE
     1 6AT         1 TEMP              0 ****  ****    0 ROOT
