@<TRIPOS>MOLECULE
MOL
   64    68     1     0     0
SMALL
bcc


@<TRIPOS>ATOM
      1 C           47.5760    40.5810    61.4080 c3         0 MOL      -0.100100
      2 C1          48.6870    41.6360    61.3350 c3         0 MOL      -0.075400
      3 C2          48.1200    43.0560    61.3780 c3         0 MOL      -0.035300
      4 S           46.2850    43.1470    61.3240 ss         0 MOL      -0.196400
      5 C3          45.8510    43.3840    63.0290 ca         0 MOL       0.798300
      6 N           45.9800    44.6770    63.4120 nb         0 MOL      -0.815000
      7 C4          45.7100    45.0000    64.6830 ca         0 MOL       0.796200
      8 C5          45.3100    43.9640    65.5720 ca         0 MOL      -0.301200
      9 N1          44.9800    43.9290    66.8990 nc         0 MOL      -0.188400
     10 C6          45.2200    42.6830    65.0330 ca         0 MOL       0.487800
     11 N2          44.6920    42.7020    67.2050 nd         0 MOL      -0.141400
     12 N3          44.8250    41.9150    66.0840 na         0 MOL      -0.035800
     13 N4          45.4760    42.3330    63.7580 nb         0 MOL      -0.721000
     14 N5          45.8140    46.2800    65.1020 nu         0 MOL      -0.820900
     15 H           46.3550    46.4290    65.9460 hn         0 MOL       0.451800
     16 C7          45.4360    47.4190    64.3150 cx         0 MOL       0.183500
     17 C8          45.5230    47.2980    62.8170 cx         0 MOL      -0.146400
     18 C9          46.4940    48.1900    63.5550 cx         0 MOL      -0.091400
     19 C10         46.4270    49.6840    63.4670 ca         0 MOL      -0.036300
     20 C11         47.2400    50.4740    64.2900 ca         0 MOL      -0.112000
     21 C12         47.2140    51.8660    64.1950 ca         0 MOL      -0.140000
     22 C13         46.3720    52.4740    63.2720 ca         0 MOL       0.092900
     23 C14         45.5590    51.6960    62.4490 ca         0 MOL       0.096900
     24 F           46.3250    53.8140    63.1630 f          0 MOL      -0.124900
     25 C15         45.5820    50.3110    62.5420 ca         0 MOL      -0.145000
     26 F1          44.7500    52.3080    61.5640 f          0 MOL      -0.125900
     27 C16         44.5790    40.4810    66.1650 c5         0 MOL       0.042000
     28 C17         43.8040    40.0260    67.4320 c5         0 MOL      -0.126400
     29 C18         44.4890    38.7100    67.9020 c5         0 MOL       0.102100
     30 C19         45.3960    38.2960    66.7370 c5         0 MOL       0.104100
     31 C20         45.8660    39.6350    66.1470 c5         0 MOL       0.099100
     32 O           45.3290    38.9330    69.0330 os         0 MOL      -0.410600
     33 C21         44.6460    39.1260    70.2650 c3         0 MOL       0.125400
     34 C22         43.6790    37.9960    70.5860 c3         0 MOL       0.093400
     35 O1          44.4050    36.9780    71.2620 oh         0 MOL      -0.612800
     36 H1          43.7850    36.4860    71.8220 ho         0 MOL       0.405000
     37 O2          44.6000    37.6190    65.7750 oh         0 MOL      -0.585800
     38 H2          43.6880    37.6690    66.1160 ho         0 MOL       0.399000
     39 O3          46.3230    39.5010    64.8030 oh         0 MOL      -0.573800
     40 H3          45.5850    39.1850    64.2590 ho         0 MOL       0.410000
     41 HC1         48.0200    39.5860    61.4420 hc         0 MOL       0.039367
     42 HC2         46.9800    40.7430    62.3060 hc         0 MOL       0.039367
     43 HC3         46.9380    40.6640    60.5280 hc         0 MOL       0.039367
     44 HC4         49.3610    41.4990    62.1810 hc         0 MOL       0.051200
     45 HC5         49.2450    41.5030    60.4080 hc         0 MOL       0.051200
     46 HC6         48.5130    43.6050    60.5230 h1         0 MOL       0.084200
     47 HC7         48.4650    43.5410    62.2910 h1         0 MOL       0.084200
     48 HC          44.6010    48.0060    64.6980 h1         0 MOL       0.120700
     49 HC8         44.7480    47.7390    62.1900 hc         0 MOL       0.084200
     50 HC9         45.9400    46.3600    62.4500 hc         0 MOL       0.084200
     51 HC10        47.5020    47.7860    63.6450 hc         0 MOL       0.090700
     52 HC11        47.8950    50.0000    65.0060 ha         0 MOL       0.144000
     53 HC12        47.8440    52.4670    64.8340 ha         0 MOL       0.156000
     54 HC13        44.9480    49.7170    61.9010 ha         0 MOL       0.153000
     55 HC14        43.9860    40.1980    65.2960 h1         0 MOL       0.087700
     56 HC15        43.8700    40.7860    68.2100 hc         0 MOL       0.075700
     57 HC16        42.7600    39.8360    67.1830 hc         0 MOL       0.075700
     58 HC17        43.7480    37.9390    68.1130 h1         0 MOL       0.079700
     59 HC18        46.2340    37.6850    67.0730 h1         0 MOL       0.116700
     60 HC19        46.6350    40.0860    66.7740 h1         0 MOL       0.109700
     61 HC20        45.3830    39.1910    71.0650 h1         0 MOL       0.064700
     62 HC21        44.0910    40.0630    70.2180 h1         0 MOL       0.064700
     63 HC22        42.8770    38.3650    71.2250 h1         0 MOL       0.038200
     64 HC23        43.2590    37.5970    69.6620 h1         0 MOL       0.038200
@<TRIPOS>BOND
     1     1     2 1   
     2     1    41 1   
     3     1    42 1   
     4     1    43 1   
     5     2     3 1   
     6     2    44 1   
     7     2    45 1   
     8     3     4 1   
     9     3    46 1   
    10     3    47 1   
    11     4     5 1   
    12     5     6 ar  
    13     5    13 ar  
    14     6     7 ar  
    15     7     8 ar  
    16     7    14 1   
    17     8     9 1   
    18     8    10 ar  
    19     9    11 2   
    20    10    12 1   
    21    10    13 ar  
    22    11    12 1   
    23    12    27 1   
    24    14    15 1   
    25    14    16 1   
    26    16    17 1   
    27    16    18 1   
    28    16    48 1   
    29    17    18 1   
    30    17    49 1   
    31    17    50 1   
    32    18    19 1   
    33    18    51 1   
    34    19    20 ar  
    35    19    25 ar  
    36    20    21 ar  
    37    20    52 1   
    38    21    22 ar  
    39    21    53 1   
    40    22    23 ar  
    41    22    24 1   
    42    23    25 ar  
    43    23    26 1   
    44    25    54 1   
    45    27    28 1   
    46    27    31 1   
    47    27    55 1   
    48    28    29 1   
    49    28    56 1   
    50    28    57 1   
    51    29    30 1   
    52    29    32 1   
    53    29    58 1   
    54    30    31 1   
    55    30    37 1   
    56    30    59 1   
    57    31    39 1   
    58    31    60 1   
    59    32    33 1   
    60    33    34 1   
    61    33    61 1   
    62    33    62 1   
    63    34    35 1   
    64    34    63 1   
    65    34    64 1   
    66    35    36 1   
    67    37    38 1   
    68    39    40 1   
@<TRIPOS>SUBSTRUCTURE
     1 MOL         1 TEMP              0 ****  ****    0 ROOT
