@<TRIPOS>MOLECULE
MOL
   56    60     1     0     0
SMALL
bcc


@<TRIPOS>ATOM
      1 C           46.6500    41.8700    61.6760 ca         0 MOL       0.311600
      2 C1          46.6880    43.1990    61.1080 ca         0 MOL      -0.291500
      3 C2          46.2490    44.2720    61.8250 ca         0 MOL      -0.017000
      4 C3          45.7810    44.1580    63.1720 ca         0 MOL       0.140600
      5 C4          45.7040    42.8590    63.7620 ca         0 MOL      -0.154600
      6 C5          46.1460    41.7030    62.9990 ca         0 MOL      -0.268600
      7 C6          46.0750    40.3660    63.5600 c          0 MOL       0.607300
      8 O           46.4320    39.3220    62.9560 o          0 MOL      -0.602100
      9 C7          45.5570    40.2200    64.9460 ca         0 MOL      -0.112600
     10 C8          45.4940    38.9420    65.5250 ca         0 MOL      -0.100000
     11 C9          45.0170    38.7780    66.8190 ca         0 MOL      -0.138000
     12 C10         44.5930    39.8950    67.5570 ca         0 MOL      -0.138000
     13 C11         44.6480    41.1620    66.9920 ca         0 MOL      -0.094000
     14 C12         45.1320    41.3360    65.6840 ca         0 MOL      -0.121600
     15 C13         45.1710    42.7010    65.1020 c          0 MOL       0.586300
     16 O1          44.7320    43.6490    65.8030 o          0 MOL      -0.548100
     17 N           45.3780    45.2600    63.8710 nu         0 MOL      -0.609000
     18 H           44.9030    45.0110    64.7460 hn         0 MOL       0.418800
     19 C14         45.6120    46.6350    63.6500 ca         0 MOL       0.093600
     20 C15         44.6660    47.3370    62.8810 ca         0 MOL      -0.071000
     21 C16         44.7530    48.7080    62.6890 ca         0 MOL      -0.275500
     22 C17         45.8310    49.4380    63.2490 ca         0 MOL       0.191600
     23 C18         46.7890    48.7250    63.9930 ca         0 MOL      -0.159000
     24 C19         46.6720    47.3570    64.2170 ca         0 MOL      -0.133000
     25 S           43.4140    49.5380    61.7560 s6         0 MOL       1.457100
     26 O2          42.3140    48.5470    61.6960 o          0 MOL      -0.745867
     27 O3          43.1140    50.7680    62.5310 o          0 MOL      -0.745867
     28 O4          44.0450    49.8200    60.4180 o          0 MOL      -0.745867
     29 N1          45.9470    50.8000    62.9590 nu         0 MOL      -0.641000
     30 H1          45.1630    51.1350    62.3810 hn         0 MOL       0.477800
     31 C20         46.8060    51.7490    63.4700 ca         0 MOL       0.215600
     32 C21         47.1340    52.8540    62.6490 ca         0 MOL      -0.204000
     33 C22         47.9770    53.8610    63.1000 ca         0 MOL      -0.097000
     34 C23         48.5340    53.8120    64.3830 ca         0 MOL      -0.215000
     35 C24         48.2050    52.7330    65.2070 ca         0 MOL      -0.097000
     36 C25         47.3540    51.7180    64.7730 ca         0 MOL      -0.204000
     37 S1          47.4250    43.5030    59.4540 s6         0 MOL       1.456100
     38 O5          48.7600    42.8240    59.5260 o          0 MOL      -0.740200
     39 O6          47.5170    44.9830    59.3880 o          0 MOL      -0.740200
     40 O7          46.4800    42.8810    58.5000 o          0 MOL      -0.740200
     41 N2          47.0680    40.8330    60.9250 nv         0 MOL      -0.847200
     42 H2          47.6030    40.1170    61.4080 hn         0 MOL       0.441800
     43 H3          46.5970    40.6980    60.0280 hn         0 MOL       0.441800
     44 HC          46.2550    45.2460    61.3580 ha         0 MOL       0.182000
     45 HC1         45.8190    38.0810    64.9600 ha         0 MOL       0.146000
     46 HC2         44.9720    37.7920    67.2570 ha         0 MOL       0.119000
     47 HC3         44.2240    39.7680    68.5640 ha         0 MOL       0.122000
     48 HC4         44.3170    42.0180    67.5610 ha         0 MOL       0.152000
     49 HC5         43.8500    46.7940    62.4280 ha         0 MOL       0.158000
     50 HC6         47.6380    49.2540    64.4010 ha         0 MOL       0.131000
     51 HC7         47.4010    46.8490    64.8310 ha         0 MOL       0.140000
     52 HC8         46.7210    52.9150    61.6530 ha         0 MOL       0.141000
     53 HC9         48.2060    54.6940    62.4520 ha         0 MOL       0.108500
     54 HC10        49.2010    54.5880    64.7270 ha         0 MOL       0.106000
     55 HC11        48.6200    52.6840    66.2030 ha         0 MOL       0.108500
     56 HC12        47.1110    50.9020    65.4370 ha         0 MOL       0.141000
@<TRIPOS>BOND
     1     1     2 ar  
     2     1     6 ar  
     3     1    41 1   
     4     2     3 ar  
     5     2    37 1   
     6     3     4 ar  
     7     3    44 1   
     8     4     5 ar  
     9     4    17 1   
    10     5     6 ar  
    11     5    15 1   
    12     6     7 1   
    13     7     8 2   
    14     7     9 1   
    15     9    10 ar  
    16     9    14 ar  
    17    10    11 ar  
    18    10    45 1   
    19    11    12 ar  
    20    11    46 1   
    21    12    13 ar  
    22    12    47 1   
    23    13    14 ar  
    24    13    48 1   
    25    14    15 1   
    26    15    16 2   
    27    17    18 1   
    28    17    19 1   
    29    19    20 ar  
    30    19    24 ar  
    31    20    21 ar  
    32    20    49 1   
    33    21    22 ar  
    34    21    25 1   
    35    22    23 ar  
    36    22    29 1   
    37    23    24 ar  
    38    23    50 1   
    39    24    51 1   
    40    25    26 1   
    41    25    27 1   
    42    25    28 1   
    43    29    30 1   
    44    29    31 1   
    45    31    32 ar  
    46    31    36 ar  
    47    32    33 ar  
    48    32    52 1   
    49    33    34 ar  
    50    33    53 1   
    51    34    35 ar  
    52    34    54 1   
    53    35    36 ar  
    54    35    55 1   
    55    36    56 1   
    56    37    38 1   
    57    37    39 1   
    58    37    40 1   
    59    41    42 1   
    60    41    43 1   
@<TRIPOS>SUBSTRUCTURE
     1 MOL         1 TEMP              0 ****  ****    0 ROOT
