@<TRIPOS>MOLECULE
MOL
   59    61     1     0     0
SMALL
bcc


@<TRIPOS>ATOM
      1 C           44.0030    38.3490    70.1980 c3         0 MOL      -0.102100
      2 C1          43.8010    38.2690    68.6970 c3         0 MOL       0.142400
      3 O           44.2740    39.5130    68.1290 os         0 MOL      -0.445900
      4 C2          44.5880    39.4810    66.8120 c          0 MOL       0.657700
      5 O1          44.6770    38.4370    66.1900 o          0 MOL      -0.545000
      6 C3          44.8040    40.8470    66.2650 ca         0 MOL      -0.288900
      7 C4          44.3810    41.9580    66.9900 ca         0 MOL       0.017000
      8 C5          44.5770    43.2590    66.5190 ca         0 MOL      -0.167300
      9 C6          43.9650    44.3300    67.2290 cg         0 MOL       0.245800
     10 C7          45.2900    43.4280    65.2760 ca         0 MOL       0.691200
     11 N           43.4430    45.1920    67.8200 n1         0 MOL      -0.354800
     12 N1          45.6450    42.3690    64.5580 nb         0 MOL      -0.735000
     13 C8          45.4080    41.0940    64.9830 ca         0 MOL       0.528600
     14 C9          45.8100    40.0840    64.0900 c3         0 MOL      -0.166400
     15 N2          45.5670    44.6740    64.7500 nh         0 MOL      -0.734300
     16 C10         46.1000    44.7680    63.3860 c6         0 MOL       0.183800
     17 C11         45.6220    46.0630    62.7190 c6         0 MOL      -0.076900
     18 C12         45.9810    47.3060    63.5550 c6         0 MOL      -0.133700
     19 C13         45.4690    47.1270    64.9990 c6         0 MOL      -0.076900
     20 C14         45.9710    45.8090    65.5900 c6         0 MOL       0.183800
     21 C15         45.3610    48.5570    62.9350 c          0 MOL       0.696100
     22 N3          46.2260    49.3200    62.1690 ns         0 MOL      -0.675300
     23 H           47.2040    49.0680    62.0650 hn         0 MOL       0.339500
     24 O2          44.2020    48.8850    63.1300 o          0 MOL      -0.575100
     25 S           45.8010    50.7190    61.2560 s6         0 MOL       1.440600
     26 O3          47.0590    51.0470    60.5790 o          0 MOL      -0.639300
     27 O4          44.5820    50.4600    60.4950 o          0 MOL      -0.639300
     28 C16         45.4060    51.9710    62.5290 c3         0 MOL      -0.264300
     29 C17         46.5910    52.4710    63.3090 ca         0 MOL      -0.072300
     30 C18         47.0420    51.7910    64.4490 ca         0 MOL      -0.122000
     31 C19         48.1460    52.2620    65.1570 ca         0 MOL      -0.129500
     32 C20         48.8130    53.4140    64.7330 ca         0 MOL      -0.124000
     33 C21         48.3690    54.0960    63.5990 ca         0 MOL      -0.129500
     34 C22         47.2620    53.6270    62.8920 ca         0 MOL      -0.122000
     35 HC1         43.6560    37.4250    70.6620 hc         0 MOL       0.049700
     36 HC2         45.0620    38.4890    70.4150 hc         0 MOL       0.049700
     37 HC3         43.4360    39.1900    70.5970 hc         0 MOL       0.049700
     38 HC4         42.7430    38.1350    68.4700 h1         0 MOL       0.054200
     39 HC5         44.3750    37.4360    68.2910 h1         0 MOL       0.054200
     40 HC          43.8890    41.8110    67.9400 ha         0 MOL       0.175000
     41 HC6         45.1730    39.2320    64.2050 hc         0 MOL       0.074033
     42 HC7         45.7410    40.4480    63.0860 hc         0 MOL       0.074033
     43 HC8         45.7530    43.9140    62.8040 h1         0 MOL       0.052950
     44 HC9         47.1890    44.7610    63.4230 h1         0 MOL       0.052950
     45 HC10        46.0930    46.1490    61.7400 hc         0 MOL       0.069450
     46 HC11        44.5400    46.0200    62.5920 hc         0 MOL       0.069450
     47 HC12        47.0650    47.4200    63.5740 hc         0 MOL       0.072700
     48 HC13        45.8290    47.9540    65.6110 hc         0 MOL       0.069450
     49 HC14        44.3790    47.1280    64.9970 hc         0 MOL       0.069450
     50 HC15        45.5510    45.6820    66.5880 h1         0 MOL       0.052950
     51 HC16        47.0590    45.8370    65.6580 h1         0 MOL       0.052950
     52 HC17        44.6990    51.5290    63.2320 h1         0 MOL       0.136700
     53 HC18        44.9270    52.8210    62.0430 h1         0 MOL       0.136700
     54 HC19        46.5320    50.8980    64.7800 ha         0 MOL       0.149000
     55 HC20        48.4870    51.7350    66.0360 ha         0 MOL       0.135500
     56 HC21        49.6700    53.7760    65.2810 ha         0 MOL       0.134000
     57 HC22        48.8830    54.9870    63.2690 ha         0 MOL       0.135500
     58 HC23        46.9200    54.1590    62.0170 ha         0 MOL       0.149000
     59 H1          46.8210    39.8040    64.3000 hc         0 MOL       0.074033
@<TRIPOS>BOND
     1     1     2 1   
     2     1    35 1   
     3     1    36 1   
     4     1    37 1   
     5     2     3 1   
     6     2    38 1   
     7     2    39 1   
     8     3     4 1   
     9     4     5 2   
    10     4     6 1   
    11     6     7 ar  
    12     6    13 ar  
    13     7     8 ar  
    14     7    40 1   
    15     8     9 1   
    16     8    10 ar  
    17     9    11 3   
    18    10    12 ar  
    19    10    15 1   
    20    12    13 ar  
    21    13    14 1   
    22    14    41 1   
    23    14    42 1   
    24    14    59 1   
    25    15    16 1   
    26    15    20 1   
    27    16    17 1   
    28    16    43 1   
    29    16    44 1   
    30    17    18 1   
    31    17    45 1   
    32    17    46 1   
    33    18    19 1   
    34    18    21 1   
    35    18    47 1   
    36    19    20 1   
    37    19    48 1   
    38    19    49 1   
    39    20    50 1   
    40    20    51 1   
    41    21    22 1   
    42    21    24 2   
    43    22    23 1   
    44    22    25 1   
    45    25    26 2   
    46    25    27 2   
    47    25    28 1   
    48    28    29 1   
    49    28    52 1   
    50    28    53 1   
    51    29    30 ar  
    52    29    34 ar  
    53    30    31 ar  
    54    30    54 1   
    55    31    32 ar  
    56    31    55 1   
    57    32    33 ar  
    58    32    56 1   
    59    33    34 ar  
    60    33    57 1   
    61    34    58 1   
@<TRIPOS>SUBSTRUCTURE
     1 MOL         1 TEMP              0 ****  ****    0 ROOT
