@<TRIPOS>MOLECULE
6AD
   44    46     1     0     0
SMALL
bcc


@<TRIPOS>ATOM
      1 PA          48.8900    40.8540    62.4910 p5      1201 6AD       1.614800
      2 PB          50.5720    41.5530    60.2400 p5      1201 6AD       1.608800
      3 C5'         49.6520    38.3300    63.0130 c3      1201 6AD       0.201400
      4 O5'         48.6090    39.3100    62.7920 os      1201 6AD      -0.584200
      5 C4'         49.0470    37.0340    63.6160 c5      1201 6AD       0.086100
      6 O4'         48.6600    37.2120    65.0170 os      1201 6AD      -0.431600
      7 C3'         47.7840    36.5770    62.8680 c5      1201 6AD       0.106100
      8 O3'         47.6670    35.1470    62.8420 oh      1201 6AD      -0.657800
      9 C2'         46.6710    37.1690    63.6770 c5      1201 6AD       0.106100
     10 O2'         45.4660    36.4330    63.5750 oh      1201 6AD      -0.615800
     11 C1'         47.1980    37.1580    65.1040 c5      1201 6AD       0.219800
     12 N1          45.2300    38.4770    69.6560 nb      1201 6AD      -0.817000
     13 O1A         49.9170    41.4050    63.4120 o       1201 6AD      -0.889000
     14 O1B         52.0010    41.2810    60.5390 o       1201 6AD      -0.889500
     15 S1          45.6910    35.8520    70.2920 ss      1201 6AD      -0.259400
     16 C2          45.6760    37.2680    69.2400 ca      1201 6AD       0.753300
     17 O2A         47.5380    41.4570    62.4410 o       1201 6AD      -0.889000
     18 O2B         50.2070    41.2470    58.6890 o       1201 6AD      -0.889500
     19 N3          46.1690    37.1290    67.9950 nb      1201 6AD      -0.691000
     20 O3A         49.5130    40.6350    61.0070 os      1201 6AD      -0.820800
     21 O3B         50.1800    43.0830    60.5080 oh      1201 6AD      -0.792400
     22 C4          46.1690    38.1710    67.1460 ca      1201 6AD       0.446800
     23 C5          45.6900    39.3700    67.5400 ca      1201 6AD      -0.199200
     24 C6          45.2250    39.5180    68.8030 ca      1201 6AD       0.700200
     25 N6          44.7200    40.7010    69.1640 nv      1201 6AD      -0.925500
     26 N7          45.7990    40.1990    66.4980 nc      1201 6AD      -0.595100
     27 C8          46.3910    39.5430    65.5100 cd      1201 6AD       0.458700
     28 N9          46.6260    38.2890    65.9040 na      1201 6AD      -0.266000
     29 C11         44.4120    36.1810    71.4860 c3      1201 6AD      -0.051000
     30 H5'         50.1330    38.0950    62.0630 h1      1201 6AD       0.017700
     31 H5''        50.3920    38.7380    63.7020 h1      1201 6AD       0.017700
     32 H4'         49.7930    36.2410    63.5580 h1      1201 6AD       0.074700
     33 H3'         47.7740    36.9790    61.8550 h1      1201 6AD       0.138700
     34 HO3'        48.3840    34.7760    62.3220 ho      1201 6AD       0.494000
     35 H2'         46.4980    38.1980    63.3610 h1      1201 6AD       0.096700
     36 HO2'        45.1530    36.4540    62.6680 ho      1201 6AD       0.427000
     37 H1'         46.9110    36.2180    65.5750 h2      1201 6AD       0.098700
     38 H61         44.3510    40.8300    70.0950 hn      1201 6AD       0.405800
     39 H62         44.7080    41.4670    68.5060 hn      1201 6AD       0.405800
     40 H8          46.6420    39.9550    64.5440 h5      1201 6AD       0.186800
     41 H111        44.2190    35.2810    72.0700 h1      1201 6AD       0.060700
     42 H112        44.7330    36.9830    72.1500 h1      1201 6AD       0.060700
     43 H113        43.5010    36.4810    70.9690 h1      1201 6AD       0.060700
     44 H           50.9790    43.6070    60.6000 ho         0 MOL       0.416000
@<TRIPOS>BOND
     1     1     4 1   
     2     1    13 1   
     3     1    17 1   
     4     1    20 1   
     5     2    14 1   
     6     2    18 1   
     7     2    20 1   
     8     2    21 1   
     9     3     4 1   
    10     3     5 1   
    11     3    30 1   
    12     3    31 1   
    13     5     6 1   
    14     5     7 1   
    15     5    32 1   
    16     6    11 1   
    17     7     8 1   
    18     7     9 1   
    19     7    33 1   
    20     8    34 1   
    21     9    10 1   
    22     9    11 1   
    23     9    35 1   
    24    10    36 1   
    25    11    28 1   
    26    11    37 1   
    27    12    16 ar  
    28    12    24 ar  
    29    15    16 1   
    30    15    29 1   
    31    16    19 ar  
    32    19    22 ar  
    33    21    44 1   
    34    22    23 ar  
    35    22    28 1   
    36    23    24 ar  
    37    23    26 1   
    38    24    25 1   
    39    25    38 1   
    40    25    39 1   
    41    26    27 2   
    42    27    28 1   
    43    27    40 1   
    44    29    41 1   
    45    29    42 1   
    46    29    43 1   
@<TRIPOS>SUBSTRUCTURE
     1 6AD         1 TEMP              0 ****  ****    0 ROOT
